
 OpenBabel12262515073D

 43 43  0  0  0  0  0  0  0  0999 V2000
    2.7679   -1.5400    8.9465 C   0  0  0  0  0  0  0  0  0  0  0  0
    2.3385   -1.4054    7.5731 N   0  0  0  0  0  0  0  0  0  0  0  0
    3.0994   -1.3107    6.4212 C   0  0  0  0  0  0  0  0  0  0  0  0
    2.4382   -1.1440    5.2155 N   0  0  0  0  0  0  0  0  0  0  0  0
    1.0425   -1.3595    4.8828 C   0  0  0  0  0  0  0  0  0  0  0  0
    0.4453   -0.1024    4.2433 C   0  0  0  0  0  0  0  0  0  0  0  0
   -1.3561   -0.2440    3.9513 S   0  0  0  0  0  0  0  0  0  0  0  0
   -1.9233   -0.4346    5.6715 C   0  0  0  0  0  0  0  0  0  0  0  0
   -3.3883   -0.6231    5.7459 C   0  0  0  0  0  0  0  0  0  0  0  0
   -4.4553    0.2442    5.8225 C   0  0  0  0  0  0  0  0  0  0  0  0
   -5.6141   -0.5604    5.9199 C   0  0  0  0  0  0  0  0  0  0  0  0
   -5.1889   -1.8690    5.8800 C   0  0  0  0  0  0  0  0  0  0  0  0
   -5.9040   -3.1810    5.8712 C   0  0  0  0  0  0  0  0  0  0  0  0
   -6.8953   -3.2666    4.7809 N   0  0  0  0  0  0  0  0  0  0  0  0
   -6.2458   -3.2357    3.4655 C   0  0  0  0  0  0  0  0  0  0  0  0
   -7.6808   -4.4943    4.9112 C   0  0  0  0  0  0  0  0  0  0  0  0
   -3.8283   -1.9158    5.7895 O   0  0  0  0  0  0  0  0  0  0  0  0
    4.4473   -1.3618    6.5212 C   0  0  0  0  0  0  0  0  0  0  0  0
    5.3412   -1.2866    5.3971 N   0  3  0  0  0  0  0  0  0  0  0  0
    4.8855   -1.2312    4.2427 O   0  5  0  0  0  0  0  0  0  0  0  0
    6.5476   -1.2924    5.6757 O   0  0  0  0  0  0  0  0  0  0  0  0
    1.8933   -1.5842    9.6032 H   0  0  0  0  0  0  0  0  0  0  0  0
    3.3757   -0.6827    9.2530 H   0  0  0  0  0  0  0  0  0  0  0  0
    3.3411   -2.4606    9.0866 H   0  0  0  0  0  0  0  0  0  0  0  0
    1.3395   -1.3442    7.4425 H   0  0  0  0  0  0  0  0  0  0  0  0
    3.0583   -1.1596    4.3973 H   0  0  0  0  0  0  0  0  0  0  0  0
    0.4851   -1.6452    5.7715 H   0  0  0  0  0  0  0  0  0  0  0  0
    0.9661   -2.2056    4.1906 H   0  0  0  0  0  0  0  0  0  0  0  0
    0.9243    0.0765    3.2732 H   0  0  0  0  0  0  0  0  0  0  0  0
    0.6343    0.7871    4.8548 H   0  0  0  0  0  0  0  0  0  0  0  0
   -1.6251    0.4449    6.2483 H   0  0  0  0  0  0  0  0  0  0  0  0
   -1.4569   -1.3124    6.1234 H   0  0  0  0  0  0  0  0  0  0  0  0
   -4.3989    1.3240    5.8043 H   0  0  0  0  0  0  0  0  0  0  0  0
   -6.6445   -0.2353    5.9775 H   0  0  0  0  0  0  0  0  0  0  0  0
   -6.4185   -3.2678    6.8373 H   0  0  0  0  0  0  0  0  0  0  0  0
   -5.1863   -4.0087    5.8164 H   0  0  0  0  0  0  0  0  0  0  0  0
   -5.6798   -2.3101    3.3138 H   0  0  0  0  0  0  0  0  0  0  0  0
   -7.0006   -3.2592    2.6719 H   0  0  0  0  0  0  0  0  0  0  0  0
   -5.5651   -4.0823    3.3202 H   0  0  0  0  0  0  0  0  0  0  0  0
   -8.1903   -4.5295    5.8802 H   0  0  0  0  0  0  0  0  0  0  0  0
   -7.0630   -5.3945    4.8131 H   0  0  0  0  0  0  0  0  0  0  0  0
   -8.4638   -4.5286    4.1450 H   0  0  0  0  0  0  0  0  0  0  0  0
    5.0094   -1.4727    7.4348 H   0  0  0  0  0  0  0  0  0  0  0  0
  1  2  1  0  0  0  0
  1 22  1  0  0  0  0
  1 23  1  0  0  0  0
  1 24  1  0  0  0  0
  2  3  1  0  0  0  0
  2 25  1  0  0  0  0
  3  4  1  0  0  0  0
  3 18  2  3  0  0  0
  4  5  1  0  0  0  0
  4 26  1  0  0  0  0
  5  6  1  0  0  0  0
  5 27  1  0  0  0  0
  5 28  1  0  0  0  0
  6  7  1  0  0  0  0
  6 29  1  0  0  0  0
  6 30  1  0  0  0  0
  7  8  1  0  0  0  0
  8  9  1  0  0  0  0
  8 31  1  0  0  0  0
  8 32  1  0  0  0  0
  9 10  2  0  0  0  0
  9 17  1  0  0  0  0
 10 11  1  0  0  0  0
 10 33  1  0  0  0  0
 11 12  2  0  0  0  0
 11 34  1  0  0  0  0
 12 13  1  0  0  0  0
 12 17  1  0  0  0  0
 13 14  1  0  0  0  0
 13 35  1  0  0  0  0
 13 36  1  0  0  0  0
 14 15  1  0  0  0  0
 14 16  1  0  0  0  0
 15 37  1  0  0  0  0
 15 38  1  0  0  0  0
 15 39  1  0  0  0  0
 16 40  1  0  0  0  0
 16 41  1  0  0  0  0
 16 42  1  0  0  0  0
 18 19  1  0  0  0  0
 18 43  1  0  0  0  0
 19 20  1  0  0  0  0
 19 21  2  0  0  0  0
M  CHG  2  19   1  20  -1
M  END
$$$$
