REMARK  Name = 
REMARK  13 active torsions:
REMARK  status: ('A' for Active; 'I' for Inactive)
REMARK    1  A    between atoms: C_1  and  N_2
REMARK    2  A    between atoms: N_2  and  C_3
REMARK    3  A    between atoms: C_3  and  N_4
REMARK    4  A    between atoms: N_4  and  C_5
REMARK    5  A    between atoms: C_5  and  C_6
REMARK    6  A    between atoms: C_6  and  S_7
REMARK    7  A    between atoms: S_7  and  C_8
REMARK    8  A    between atoms: C_8  and  C_9
REMARK    9  A    between atoms: C_12  and  C_13
REMARK   10  A    between atoms: C_13  and  N_14
REMARK   11  A    between atoms: N_14  and  C_15
REMARK   12  A    between atoms: N_14  and  C_16
REMARK   13  A    between atoms: C_18  and  N_19
REMARK                            x       y       z     vdW  Elec       q    Type
REMARK                         _______ _______ _______ _____ _____    ______ ____
ROOT
ATOM      1  C   UNL     1       0.445  -0.102   4.243  0.00  0.00    +0.088 C 
ENDROOT
BRANCH   1   2
ATOM      2  C   UNL     1       1.042  -1.359   4.883  0.00  0.00    +0.113 C 
BRANCH   2   3
ATOM      3  N   UNL     1       2.438  -1.144   5.215  0.00  0.00    -0.330 N 
ATOM      4  H   UNL     1       3.058  -1.160   4.397  0.00  0.00    +0.147 HD
BRANCH   3   5
ATOM      5  C   UNL     1       3.099  -1.311   6.421  0.00  0.00    +0.107 C 
ATOM      6  C   UNL     1       4.447  -1.362   6.521  0.00  0.00    +0.216 C 
BRANCH   5   8
ATOM      7  C   UNL     1       2.768  -1.540   8.947  0.00  0.00    +0.126 C 
ATOM      8  N   UNL     1       2.338  -1.405   7.573  0.00  0.00    -0.334 N 
ATOM      9  H   UNL     1       1.339  -1.344   7.442  0.00  0.00    +0.147 HD
ENDBRANCH   5   8
BRANCH   6  10
ATOM     10  N   UNL     1       5.341  -1.287   5.397  0.00  0.00    +0.052 N 
ATOM     11  O   UNL     1       4.886  -1.231   4.243  0.00  0.00    -0.127 OA
ATOM     12  O   UNL     1       6.548  -1.292   5.676  0.00  0.00    -0.127 OA
ENDBRANCH   6  10
ENDBRANCH   3   5
ENDBRANCH   2   3
ENDBRANCH   1   2
BRANCH   1  13
ATOM     13  S   UNL     1      -1.356  -0.244   3.951  0.00  0.00    -0.151 S 
BRANCH  13  14
ATOM     14  C   UNL     1      -1.923  -0.435   5.671  0.00  0.00    +0.143 C 
BRANCH  14  15
ATOM     15  C   UNL     1      -3.388  -0.623   5.746  0.00  0.00    +0.115 A 
ATOM     16  C   UNL     1      -4.455   0.244   5.822  0.00  0.00    +0.046 A 
ATOM     17  C   UNL     1      -5.614  -0.560   5.920  0.00  0.00    +0.046 A 
ATOM     18  C   UNL     1      -5.189  -1.869   5.880  0.00  0.00    +0.119 A 
ATOM     19  O   UNL     1      -3.828  -1.916   5.790  0.00  0.00    -0.462 OA
BRANCH  18  20
ATOM     20  C   UNL     1      -5.904  -3.181   5.871  0.00  0.00    +0.158 C 
BRANCH  20  21
ATOM     21  N   UNL     1      -6.895  -3.267   4.781  0.00  0.00    -0.301 NA
ATOM     22  C   UNL     1      -6.246  -3.236   3.466  0.00  0.00    +0.105 C 
ATOM     23  C   UNL     1      -7.681  -4.494   4.911  0.00  0.00    +0.105 C 
ENDBRANCH  20  21
ENDBRANCH  18  20
ENDBRANCH  14  15
ENDBRANCH  13  14
ENDBRANCH   1  13
TORSDOF 10
